189
	Energy:     591.9684230
Li         2.13449       -0.79284        6.08433
Li        -1.16695       -0.69139        9.30135
Li        -2.04545        0.21594       12.33243
Li        -3.53462        3.57314        4.05251
Li        -3.70282        5.98752        2.88827
Li         5.75528        9.37333        1.83657
Li         2.90196        5.99741        1.78873
Li         6.29511        0.03655        5.32950
Li        10.83504        2.00485        6.06503
Li        -5.26787        5.38656        7.80683
Li        -4.37168        9.37896       11.74546
Li         4.85885        8.34775        6.31650
Li         1.54992        6.86550       10.81159
Li         3.13314       -0.92990        8.87923
Li         6.85174       -0.71429       10.08780
Li        -4.80761        7.74421        7.14304
Li        -5.40515        6.85125       12.13256
Li         1.41321        6.01413        6.53850
Li         5.78553        8.67608       11.58862
Li         7.64662       -0.75993        6.71199
Li         2.17519       -0.55043       11.90838
Li         1.45336        8.31281        1.91199
Li         7.33112        7.86212        1.55327
Li        -2.18524        9.30312        7.02304
Li         6.69814        6.86931       11.17176
Li         6.10663        6.44404        6.02062
Li        -1.57521       10.58243       12.04405
C          0.39649        1.76666        5.56502
C         -5.95491       12.69035       14.49673
C          4.55974       11.49324        3.97755
C         -1.20923        3.05686       12.60368
C          2.69439        1.04209        5.44212
C          9.13421        0.00752       11.75395
C         -6.62436        8.98758        4.76546
C         -2.57696        3.27586       12.78025
C          1.73296        2.03936        5.27338
C          5.07138       10.66816       13.36672
C         12.40215        3.11338        3.87112
C         -0.73909        1.75909       12.39964
C         -2.11718        2.30102        9.25201
C         -6.79105       11.31020        9.21760
C          4.38950       10.70061        7.92615
C         -0.73409        2.24117        9.06606
C         -0.08886        1.00277        9.05767
C          9.90152        0.54103        8.04208
C         -2.61113        4.80498        5.40633
C         -4.38575        8.50933       14.44695
C          3.34786        7.30682        4.08268
C          1.52416        6.33730       12.73989
C          6.81338        1.89908        4.73181
C          4.81293        0.78430       11.92936
C         -3.42041        6.06446        5.73258
C         -4.13685        7.19631       13.69286
C          2.88162        5.90712        3.83588
C          2.49226        7.41706       13.11636
C          8.15621        2.18912        4.51205
C          3.44522        1.02232       12.02225
C         -4.21196        6.07536        9.42343
C         -4.64025        7.46269        9.91924
C          2.30679        7.09499        8.55555
C          1.50536        5.83144        8.52463
C          4.15402        0.79609        8.60222
C          5.53579        0.74018        8.45104
C         -5.57071        7.92764        4.70762
C         -3.06273        4.56048       13.03480
C          2.11322        3.32306        4.82637
C          4.37008        9.48971       14.02105
C         10.97013        2.66884        4.13459
C          0.62881        1.51573       12.26035
C         -0.56833        2.76872        5.45273
C         -5.43528       11.35620       14.06487
C          4.12135       10.06515        4.09613
C         -0.30388        4.13870       12.65502
C          4.04305        1.31229        5.19948
C          7.61801        0.14255       11.77978
C         -6.08975       10.00126        9.04017
C         -2.77591        3.53292        9.29184
C          0.01051        3.42811        8.90198
C          3.87052        9.56267        8.79016
C          8.38679        0.47433        8.16971
C          1.29771        0.92681        8.90144
C          4.46059        2.58370        4.77410
C          2.35605       10.84871       14.67088
C         10.32014        5.04201        3.54633
C         -4.14395       11.00697       14.14742
C          5.14840        9.00425        3.75895
C         -0.80356        5.44603       12.90456
C          1.82992       10.85942        4.65977
C          1.56047        2.56464       12.31244
C         -4.25703        8.19509        4.67069
C          8.02960        2.62452       12.05115
C          1.12261        4.33139        4.68019
C          4.86861        8.19309       13.35497
C         -2.19092        5.65591       13.11069
C          6.38839        8.99530        4.61426
C         -3.12898       11.95422       14.67515
C          9.93497        3.74865        3.92134
C          2.86735        9.68590       14.08162
C          3.48423        3.58811        4.57786
C          5.87360        7.46230       14.22508
C         -0.22229        4.05865        5.02137
C          7.12291        1.56212       11.94410
C         -3.76667        9.58890        4.65484
C          1.08785        3.88502       12.50573
C          2.83892        9.75882        4.43045
C          2.07137        2.08665        8.73404
C          1.69136       10.74837        9.24861
C          8.43016        2.98888        7.88975
C         -4.75971        9.86123        9.12619
C          4.50874        8.24828        8.30076
C         -0.66495        4.67902        8.93584
C         -2.06603        4.73238        9.14001
C          5.81402        7.94166        9.00518
C         -3.88688       11.03118        9.39720
C          7.69492        1.81630        8.10459
C          2.35712        9.56457        8.90510
C          1.41908        3.34295        8.72838
C          1.47425        5.61978        4.24196
C          3.80573        7.19647       12.96880
C          0.39507       10.38624        4.65665
C          2.95353        2.32271       12.19700
C         -3.27501        7.04904        4.58952
C          7.58622        3.92960       12.23770
C          4.60629        7.60804        3.72880
C          0.07882        6.53213       13.01769
C          5.82910        2.87730        4.54388
C          0.98169       11.02071       14.84202
C          9.37526        6.04638        3.36597
C         -3.73104        9.63593       13.66843
C          2.01039        4.93779       12.55864
C          2.35671        8.32696        4.57893
C          6.31241        6.23847       13.84775
C         -1.18803        5.08667        4.95922
C          5.73869        1.83162       12.01364
C         -2.46301        9.85349        4.54893
C          1.97314        8.69335       13.63971
C          3.88737        4.84777        4.12800
C         -2.67209        6.95591       13.39395
C          7.28473        8.00284        4.43250
C         -1.86670       11.57537       14.91535
C          8.56459        3.46750        4.11001
C          0.05289        5.87755        8.80630
C          3.62542        7.03330        8.34623
C          0.31329       10.75629        9.47641
C          3.48041        2.02332        8.57311
C         -4.15847        8.49179        8.91775
C          7.80082        4.22743        7.82529
C          2.17944        4.50258        8.54595
C          1.61388        8.37606        8.78347
C          6.41542        6.74278        8.82716
C         -2.72466        5.98430        9.17314
C          6.29440        1.90140        8.25702
C         -2.57859       10.89438        9.64560
C         -1.44475        8.77603        4.46484
C          5.27353        3.16388       12.18641
C         -0.80496        6.39161        4.55377
C          5.82162        5.65656       12.53627
C          1.00146        8.08471        3.89789
C          3.38155        4.70523       12.42797
C          7.58972        4.48180        3.90665
C         -1.41105       10.14681       14.74244
C          7.05435        6.94075        3.36298
C         -1.75860        8.03154       13.46872
C          5.23360        5.14354        3.88772
C          0.57450        8.88175       13.75961
C          6.22242        4.21815       12.31081
C         -1.82004        7.47576        4.51914
C          3.87487        3.40367       12.26729
C         -0.00341        9.13347        4.35279
C          4.31273        5.87704       12.43333
C          0.53103        6.66413        4.21487
C         -2.20157        9.46664       13.63549
C          8.01355        5.78700        3.53532
C          0.07564       10.04710       14.39949
C          6.22095        4.17637        4.11386
C         -0.38384        7.80042       13.37090
C          5.57475        6.50506        3.32866
C         -1.91773        9.54169        9.74566
C          5.64244        3.16276        8.21106
C         -1.97456        7.16779        8.99465
C          5.80610        5.71784        7.89504
C          0.21046        8.38317        8.96494
C          3.55755        4.43856        8.34892
C          6.41911        4.33875        7.99475
C         -2.62095        8.52750        8.85685
C          4.23117        3.21416        8.37427
C         -0.44291        9.58272        9.34519
C          4.30348        5.70772        8.12257
C         -0.58215        7.11628        8.89632
